80
idic_freq.out	Energy: -2994976.4178658
C         -3.88730        0.23860        1.75211
C         -3.95659       -0.09305        3.09454
C         -3.07167       -1.06513        3.64336
C         -2.10691       -1.71896        2.86146
C         -2.03763       -1.38732        1.51903
C         -2.92253       -0.41522        0.97021
C         -4.90611        0.46311        4.15959
C         -4.44706       -0.31643        5.37838
C         -3.39901       -1.17630        5.04265
C         -4.81060       -0.37633        6.72188
C         -4.03735       -1.29776        7.44926
S         -2.83158       -2.08269        6.38306
C         -1.08817       -1.94354        0.45395
C         -1.54723       -1.16401       -0.76484
C         -2.59522       -0.30409       -0.42909
C         -1.18372       -1.10416       -2.10835
C         -1.95694       -0.18269       -2.83572
S         -3.16262        0.60233       -1.76950
C         -4.00875       -1.69770        8.80646
C         -4.78507       -1.36513        9.90420
C         -6.00679       -0.52066        9.92508
O         -6.51838        0.13282        9.02243
C         -6.55441       -0.61658       11.29809
C         -5.72698       -1.42737       12.08847
C         -4.57851       -1.87959       11.26207
C         -7.70577       -0.02234       11.78214
C         -8.05701       -0.24859       13.11460
C         -7.24216       -1.06539       13.92373
C         -6.07689       -1.65542       13.41996
C         -3.50839       -2.60968       11.75218
C         -3.42078       -3.06892       13.10135
N         -3.30528       -3.46727       14.19012
C         -2.35148       -2.96906       10.99563
N         -1.38268       -3.28062       10.42769
Cl        -9.50711        0.49387       13.73454
Cl        -7.65384       -1.37542       15.59076
C         -1.98561        0.21713       -4.19295
C         -1.20932       -0.11553       -5.29068
C          0.01273       -0.95952       -5.31147
O          0.52446       -1.61291       -4.40882
C          0.56046       -0.86333       -6.68443
C         -0.26723       -0.05284       -7.47486
C         -1.41603        0.39875       -6.64860
C          1.71212       -1.45704       -7.16840
C          2.06342       -1.23053       -8.50080
C          1.24831       -0.41402       -9.30997
C          0.08273        0.17546       -8.80629
C         -2.48663        1.12800       -7.13890
C         -2.57423        1.58728       -8.48806
N         -2.68963        1.98562       -9.57684
C         -3.64408        1.48621       -6.38262
N         -4.61336        1.79676       -5.81496
Cl         3.51392       -1.97230       -9.12062
Cl         1.66007       -0.10367      -10.97692
H         -4.55279        0.97771        1.31523
H         -1.44142       -2.45806        3.29834
H         -5.59194        0.19628        7.20055
H         -3.22403       -2.41779        9.00790
H         -8.31766        0.60144       11.14007
H         -5.49011       -2.27404       14.08312
H         -0.40243       -1.67682       -2.58702
H         -2.77031        0.93723       -4.39442
H          2.32420       -2.08061       -6.52631
H         -0.50427        0.79387       -9.46946
C         -4.70609        1.98188        4.35371
H         -3.66442        2.21422        4.59607
H         -4.97857        2.52119        3.44023
H         -5.34177        2.34535        5.16816
C         -6.37958        0.15579        3.81465
H         -7.03561        0.49682        4.62259
H         -6.67108        0.67437        2.89494
H         -6.53476       -0.91807        3.67134
C          0.38533       -1.63627        0.79882
H          0.54055       -0.56240        0.94210
H          0.67685       -2.15483        1.71855
H          1.04132       -1.97735       -0.00912
C         -1.28825       -3.46232        0.25988
H         -0.65262       -3.82583       -0.55458
H         -1.01574       -4.00161        1.17337
H         -2.32993       -3.69463        0.01758
