80
idic_s1_freq.out	Energy: -2994973.1307327
C         -3.86809        0.28526        1.77766
C         -3.94745       -0.06671        3.09787
C         -3.08311       -1.09127        3.64593
C         -2.12619       -1.76571        2.83588
C         -2.04683       -1.41373        1.51567
C         -2.91118       -0.38917        0.96761
C         -4.87989        0.49321        4.17738
C         -4.43973       -0.32226        5.37914
C         -3.40224       -1.21776        5.00727
C         -4.79891       -0.39372        6.70474
C         -4.04363       -1.36429        7.42666
S         -2.85758       -2.17451        6.34764
C         -1.11440       -1.97365        0.43616
C         -1.55455       -1.15818       -0.76561
C         -2.59205       -0.26268       -0.39374
C         -1.19538       -1.08672       -2.09121
C         -1.95066       -0.11615       -2.81312
S         -3.13671        0.69407       -1.73411
C         -4.02752       -1.76801        8.77028
C         -4.80884       -1.40749        9.87409
C         -6.05932       -0.59587        9.88044
O         -6.59823        0.00797        8.96042
C         -6.59122       -0.66241       11.26086
C         -5.73104       -1.42416       12.06529
C         -4.58027       -1.86798       11.23547
C         -7.75265       -0.08559       11.73925
C         -8.08235       -0.27864       13.08382
C         -7.23472       -1.04418       13.90646
C         -6.05727       -1.61782       13.40659
C         -3.47548       -2.55336       11.73411
C         -3.36712       -2.98254       13.08973
N         -3.23596       -3.35664       14.18602
C         -2.30736       -2.87961       10.98270
N         -1.32399       -3.16408       10.42440
Cl        -9.54703        0.44201       13.69704
Cl        -7.61529       -1.31185       15.58818
C         -1.96677        0.28756       -4.15675
C         -1.18546       -0.07296       -5.26055
C          0.06508       -0.88450       -5.26688
O          0.60404       -1.48828       -4.34685
C          0.59698       -0.81794       -6.64730
C         -0.26326       -0.05627       -7.45176
C         -1.41406        0.38747       -6.62195
C          1.75846       -1.39468       -7.12568
C          2.08815       -1.20163       -8.47025
C          1.24046       -0.43617       -9.29291
C          0.06296        0.13739       -8.79305
C         -2.51890        1.07276       -7.12059
C         -2.62730        1.50191       -8.47622
N         -2.75848        1.87599       -9.57251
C         -3.68705        1.39893       -6.36919
N         -4.67044        1.68331       -5.81089
Cl         3.55289       -1.92219       -9.08346
Cl         1.62102       -0.16850      -10.97463
H         -4.50791        1.05214        1.35089
H         -1.48638       -2.53258        3.26265
H         -5.56554        0.18778        7.19507
H         -3.26200       -2.50502        8.98047
H         -8.38974        0.49998       11.08579
H         -5.44469       -2.19656       14.08237
H         -0.42875       -1.66822       -2.58154
H         -2.73231        1.02455       -4.36695
H          2.39559       -1.98019       -6.47221
H         -0.54965        0.71608       -9.46884
C         -4.64063        2.00124        4.40414
H         -3.59263        2.20230        4.64686
H         -4.90304        2.56656        3.50368
H         -5.26373        2.36144        5.22954
C         -6.36136        0.22796        3.83243
H         -7.00549        0.56567        4.65106
H         -6.64288        0.77356        2.92550
H         -6.54246       -0.83841        3.66581
C          0.36707       -1.70840        0.78110
H          0.54817       -0.64204        0.94773
H          0.64859       -2.25400        1.68804
H          1.01120       -2.04611       -0.03752
C         -1.35365       -3.48168        0.20940
H         -0.73055       -3.84188       -0.61600
H         -1.09125       -4.04700        1.10986
H         -2.40166       -3.68274       -0.03332
