85
y6_an_freq.out	Energy: -3023872.6757260
C         -0.01004       -0.00670        1.03758
C          0.19525        1.22523        1.74362
C          0.22766        1.24631        3.17463
C          0.02490        0.01034        3.90743
C         -0.10133       -1.21938        3.18529
C         -0.05278       -1.23006        1.75136
N          0.38109        2.31400        3.94751
S          0.27249        1.77759        5.51952
N          0.02593        0.15787        5.22612
C          0.24397        2.23906        0.78114
C          0.03654        1.64629       -0.47881
N         -0.12955        0.28045       -0.32193
S          0.42393        3.97774        0.70168
C          0.20233        3.89183       -1.06303
C          0.00489        2.57177       -1.52926
C          0.19673        4.86835       -2.05170
C         -0.01743        4.30646       -3.34964
S         -0.19665        2.52114       -3.25831
C         -0.19112       -2.55362        3.59624
C         -0.16041       -3.36134        2.44363
N         -0.06464       -2.55648        1.32093
S         -0.26967       -3.47745        5.08060
C         -0.24804       -4.97485        4.11709
C         -0.18501       -4.73267        2.72563
C         -0.29023       -6.31692        4.47551
C         -0.25333       -7.17228        3.32952
S         -0.17891       -6.21479        1.81149
C         -0.06602        5.11282       -4.49193
C         -0.27132       -8.56499        3.46068
C         -0.25316        4.87647       -5.86285
C         -0.47133        3.56471       -6.49076
O         -0.52697        2.45828       -5.95493
C         -0.62081        3.80272       -7.94731
C         -0.50017        5.17994       -8.19873
C         -0.26606        5.87661       -6.90235
C         -0.84440        2.86485       -8.94206
C         -0.95157        3.33489      -10.24646
C         -0.83536        4.70012      -10.51715
C         -0.61051        5.64030       -9.51391
C         -0.09511        7.26468       -6.79018
C         -0.12358        8.15231       -7.90167
N         -0.13801        8.91898       -8.78249
C          0.12891        7.96101       -5.56954
N          0.31441        8.58744       -4.60102
C         -0.24411       -9.64361        2.56287
C         -0.20056       -9.54508        1.09624
O         -0.17696       -8.53316        0.39624
C         -0.19181      -10.93211        0.57050
C         -0.22798      -11.82943        1.65128
C         -0.25970      -11.04213        2.91618
C         -0.15453      -11.33757       -0.75359
C         -0.15385      -12.70628       -0.99951
C         -0.18963      -13.61462        0.06079
C         -0.22679      -13.20282        1.39124
C         -0.29397      -11.62714        4.19105
C         -0.31011      -13.03270        4.41069
N         -0.32476      -14.17758        4.64063
C         -0.31401      -10.90503        5.41719
N         -0.33086      -10.36754        6.45437
H          0.07608        6.15401       -4.23560
H         -0.31617       -8.85414        4.50197
H         -0.93325        1.80699       -8.71925
F         -1.16855        2.48862      -11.26847
F         -0.94644        5.10792      -11.79369
H         -0.53277        6.67943       -9.80072
H         -0.12687      -10.62256       -1.56885
F         -0.11898      -13.18048       -2.25714
F         -0.18761      -14.92840       -0.22590
H         -0.25297      -13.96463        2.15744
C         -0.76258       -0.53902       -1.35365
H         -1.39202        0.10469       -1.97235
H         -0.02663       -1.03201       -1.99434
H         -1.40329       -1.28636       -0.88475
C          0.39908       -3.08107        0.03781
H          1.03851       -2.34390       -0.44849
H          0.99674       -3.97657        0.22282
H         -0.43190       -3.34302       -0.62244
C          0.38868        6.33731       -1.79407
H          0.53758        6.53073       -0.72802
H          1.25855        6.73066       -2.33214
H         -0.47851        6.92068       -2.12373
C         -0.36374       -6.81572        5.89213
H         -1.26593       -7.41461        6.06081
H          0.49128       -7.45477        6.13991
H         -0.37671       -5.98215        6.59994
