85
y6_s1_freq.out	Energy: -3023792.7929737
C         -0.03535       -0.01838        1.02782
C          0.16533        1.22408        1.74183
C          0.20935        1.24436        3.17508
C          0.02727        0.01014        3.90471
C         -0.09061       -1.22154        3.17967
C         -0.05284       -1.23208        1.73321
N          0.35746        2.31220        3.94572
S          0.26739        1.77436        5.51734
N          0.03652        0.15356        5.22209
C          0.21457        2.23116        0.78797
C          0.00418        1.63316       -0.48190
N         -0.16080        0.27348       -0.33290
S          0.39918        3.96787        0.71214
C          0.17752        3.87758       -1.05189
C         -0.02477        2.56168       -1.52645
C          0.17714        4.85673       -2.04173
C         -0.03587        4.28791       -3.33336
S         -0.22350        2.51499       -3.25613
C         -0.17739       -2.54532        3.58808
C         -0.14862       -3.35817        2.42502
N         -0.05998       -2.56194        1.30421
S         -0.24848       -3.46563        5.07267
C         -0.22658       -4.95960        4.10480
C         -0.16826       -4.72619        2.71203
C         -0.26525       -6.30387        4.46568
C         -0.23191       -7.15012        3.31675
S         -0.16193       -6.21081        1.80117
C         -0.07299        5.10703       -4.48415
C         -0.25485       -8.55606        3.45616
C         -0.25115        4.86888       -5.84049
C         -0.48613        3.55029       -6.46975
O         -0.55206        2.45495       -5.91835
C         -0.63423        3.78777       -7.91975
C         -0.49657        5.16413       -8.17974
C         -0.24908        5.86986       -6.89905
C         -0.87127        2.84625       -8.91023
C         -0.97461        3.31090      -10.21472
C         -0.84153        4.67691      -10.49415
C         -0.60299        5.61907       -9.49904
C         -0.04885        7.24584       -6.78491
C         -0.07114        8.13621       -7.89706
N         -0.08120        8.90090       -8.77796
C          0.20670        7.93225       -5.56285
N          0.42046        8.54371       -4.59183
C         -0.23646       -9.62125        2.56560
C         -0.18236       -9.52236        1.09002
O         -0.14813       -8.50339        0.40537
C         -0.17665      -10.90382        0.56800
C         -0.22498      -11.80639        1.64688
C         -0.26418      -11.03571        2.91336
C         -0.13266      -11.30560       -0.75879
C         -0.13751      -12.67173       -1.00786
C         -0.18558      -13.58617        0.05195
C         -0.22997      -13.18062        1.38173
C         -0.31805      -11.61130        4.18316
C         -0.33454      -13.01849        4.40604
N         -0.34919      -14.16218        4.63546
C         -0.36348      -10.88198        5.40625
N         -0.40272      -10.33505        6.43668
H          0.07316        6.14563       -4.22165
H         -0.29497       -8.83827        4.49905
H         -0.97253        1.79082       -8.68238
F         -1.20317        2.46686      -11.23072
F         -0.95029        5.07400      -11.76980
H         -0.51203        6.65524       -9.79233
H         -0.09618      -10.58853       -1.57157
F         -0.09682      -13.14365       -2.26188
F         -0.18838      -14.89400       -0.24204
H         -0.26589      -13.94517        2.14470
C         -0.78368       -0.54925       -1.37183
H         -1.41964        0.09106       -1.98674
H         -0.03828       -1.02835       -2.01091
H         -1.41772       -1.30377       -0.90643
C          0.39486       -3.08964        0.01629
H          1.02349       -2.34936       -0.47788
H          1.00300       -3.97765        0.20136
H         -0.44299       -3.36096       -0.63005
C          0.37469        6.32476       -1.78540
H          0.53957        6.51648       -0.72177
H          1.23707        6.71736       -2.33498
H         -0.49800        6.90784       -2.09983
C         -0.33265       -6.80242        5.88237
H         -1.22254       -7.41876        6.05006
H          0.53681       -7.42029        6.13273
H         -0.36525       -5.96853        6.58862
