102
zr1_s1_freq.out	Energy: -4916902.7108117
C         -0.30782        0.96037        3.29913
C         -0.47043        0.97238        1.92356
C         -0.77507       -0.20767        1.16128
C         -0.93550       -1.46102        1.82046
C         -0.77393       -1.47329        3.19552
C         -0.46976       -0.29290        3.95882
S         -0.27410        2.41236        0.89919
C         -0.58992        1.44446       -0.53010
C         -0.83888        0.09438       -0.21594
C         -0.62801        1.74177       -1.89350
C         -0.90781        0.61084       -2.67081
S         -1.13567       -0.83869       -1.66031
S         -0.97249       -2.91342        4.21894
C         -0.66193       -1.94535        5.64951
C         -0.41033       -0.59474        5.33556
C         -0.63262       -2.24301        7.01190
C         -0.35705       -1.11105        7.79240
S         -0.12142        0.33893        6.78202
C          0.01538        2.17599        4.06754
S         -1.19473        3.40825        4.39388
C         -0.06240        4.36173        5.32401
C          1.16201        3.74720        5.36640
C          1.20822        2.50933        4.65840
C         -1.25699       -2.67724        1.05172
S         -0.03947       -3.89727        0.70874
C         -1.17333       -4.85870       -0.21138
C         -2.40373       -4.25540       -0.23830
C         -2.45337       -3.01985        0.47370
C         -1.02499        0.52697       -4.08202
S         -0.84067        1.94135       -5.11099
C         -1.11809        0.98865       -6.57452
C         -1.34336       -0.36457       -6.24753
C         -1.28774       -0.59746       -4.86686
C         -0.25273       -1.02726        9.20199
S         -0.46523       -2.43871       10.23196
C         -0.19329       -1.48574       11.69832
C          0.05105       -0.13313       11.36924
C          0.01375        0.09674        9.98983
C         -1.08616        1.64810       -7.83786
S         -1.36968        0.83916       -9.37644
C         -1.14843        2.33168      -10.28830
C         -0.86928        3.38632       -9.40988
C         -0.83574        3.01048       -8.06831
C         -0.24810       -2.14039       12.95929
S         -0.00483       -1.32913       14.50373
C         -0.24476       -2.82882       15.41567
C         -0.49813       -3.88541       14.52696
C         -0.49926       -3.50583       13.18936
C         -1.27033        2.29263      -11.70069
C         -1.14325        3.30550      -12.61571
S         -0.78117        5.00918      -12.35043
C         -0.85096        5.36907      -14.08627
S         -0.59642        6.89001      -14.70401
N         -1.13571        4.23517      -14.78735
C         -1.31389        3.03909      -14.04696
O         -1.57177        1.96324      -14.57236
C         -0.15300       -2.74444       16.82763
C         -0.28007       -3.69074       17.82680
S         -0.10270       -3.21078       19.52745
C         -0.38255       -4.84821       20.10968
S         -0.37948       -5.26246       21.72381
N         -0.59363       -5.68175       19.05104
C         -0.55339       -5.12016       17.74617
O         -0.73367       -5.81243       16.74601
H         -0.45785        2.72543       -2.31519
H         -0.80581       -3.22645        7.43272
H          2.01154        4.17354        5.88968
H          2.09023        1.88251        4.58529
H         -3.25516       -4.68816       -0.75315
H         -3.34016       -2.40130        0.55850
H         -1.43567       -1.58371       -4.43897
H          0.17877        1.08009        9.56129
H         -0.69411        4.40434       -9.73444
H         -0.63183        3.71111       -7.26609
H         -0.67245       -4.88979       14.88436
H         -0.67986       -4.20673       12.38129
H         -1.49865        1.32974      -12.15472
H          0.05735       -1.74015       17.19453
C         -0.47105        5.66404        5.94555
H          0.37508        6.09302        6.49079
H         -0.79196        6.39095        5.19011
H         -1.30014        5.53510        6.65121
C         -0.75984       -6.15580       -0.84060
H          0.06042       -6.01783       -1.55481
H         -0.42437       -6.88162       -0.09045
H         -1.60796       -6.59106       -1.37771
C         -1.61213       -1.46602       -7.23600
H         -1.73812       -2.41984       -6.71652
H         -2.52391       -1.27837       -7.81536
H         -0.78769       -1.58071       -7.94958
C          0.32317        0.96607       12.35922
H          0.47711        1.91558       11.83921
H         -0.51169        1.09906       13.05738
H          1.22013        0.76207       12.95588
C         -1.25675        4.23048      -16.24317
H         -0.31812        4.56250      -16.69287
H         -1.48456        3.20863      -16.54409
H         -2.05731        4.90784      -16.54951
C         -0.85435       -7.10769       19.23160
H         -0.99157       -7.53966       18.24133
H         -0.00866       -7.57636       19.74043
H         -1.75295       -7.24460       19.83777
