80
idic_opt_freq.log	Energy: -2994966.1352258
C         -3.96074        0.14808        1.72773
C         -4.02194       -0.17396        3.07307
C         -3.06385       -1.05661        3.64739
C         -2.03337       -1.62835        2.88589
C         -1.97217       -1.30631        1.54054
C         -2.93025       -0.42366        0.96623
C         -5.03388        0.30604        4.11799
C         -4.52674       -0.41638        5.35323
C         -3.40299       -1.18218        5.04370
C         -4.90745       -0.49498        6.69301
C         -4.06839       -1.33490        7.44173
S         -2.78274       -2.02380        6.40338
C         -0.96022       -1.78630        0.49562
C         -1.46737       -1.06389       -0.73962
C         -2.59112       -0.29809       -0.43009
C         -1.08665       -0.98528       -2.07939
C         -1.92572       -0.14537       -2.82811
S         -3.21137        0.54353       -1.78976
C         -4.03151       -1.73473        8.80270
C         -4.82335       -1.43382        9.89462
C         -6.01370       -0.54300        9.92700
O         -6.53217        0.09657        9.01927
C         -6.50354       -0.55402       11.32315
C         -5.69234       -1.38235       12.11242
C         -4.62260       -1.95690       11.25606
C         -7.59361        0.13184       11.82854
C         -7.89589       -0.00953       13.18397
C         -7.09300       -0.83769       13.99578
C         -5.99301       -1.52514       13.46878
C         -3.64400       -2.82063       11.71301
C         -3.55563       -3.25785       13.07058
N         -3.45024       -3.63658       14.16696
C         -2.60873       -3.38123       10.90290
N         -1.74957       -3.85919       10.27749
Cl        -9.26604        0.84978       13.82935
Cl        -7.43930       -1.03858       15.69155
C         -1.96259        0.25448       -4.18908
C         -1.17081       -0.04647       -5.28104
C          0.01934       -0.93756       -5.31353
O          0.53771       -1.57731       -4.40587
C          0.50887       -0.92689       -6.70979
C         -0.30221       -0.09835       -7.49897
C         -1.37153        0.47670       -6.64245
C          1.59857       -1.61321       -7.21534
C          1.90059       -1.47211       -8.57086
C          1.09783       -0.64376       -9.38259
C         -0.00178        0.04416       -8.85542
C         -2.34978        1.34091       -7.09924
C         -2.43819        1.77810       -8.45682
N         -2.54359        2.15682       -9.55321
C         -3.38458        1.90211       -6.28895
N         -4.24335        2.38059       -5.66340
Cl         3.27029       -2.33200       -9.21645
Cl         1.44381       -0.44322      -11.07846
H         -4.68366        0.81999        1.27294
H         -1.31044       -2.30026        3.34068
H         -5.74298        0.01055        7.15624
H         -3.21081       -2.41185        9.00817
H         -8.19440        0.76220       11.18214
H         -5.41268       -2.14573       14.13619
H         -0.25113       -1.49082       -2.54263
H         -2.78325        0.93166       -4.39452
H          2.19928       -2.24370       -6.56900
H         -0.58205        0.66487       -9.52277
C         -4.97318        1.83849        4.29629
H         -3.96017        2.16542        4.55053
H         -5.27805        2.34373        3.37317
H         -5.64991        2.15395        5.09772
C         -6.46823       -0.13557        3.75530
H         -7.16581        0.15290        4.54898
H         -6.79254        0.34343        2.82485
H         -6.52457       -1.22049        3.62306
C          0.47412       -1.34469        0.85832
H          0.53046       -0.25977        0.99056
H          0.79843       -1.82369        1.78877
H          1.17171       -1.63316        0.06464
C         -1.02092       -3.31876        0.31733
H         -0.34419       -3.63421       -0.48411
H         -0.71605       -3.82400        1.24044
H         -2.03392       -3.64569        0.06309
