85
y6_opt_freq.log	Energy: -3023781.3072537
C          0.00222        0.00352        1.04282
C          0.21532        1.22409        1.74662
C          0.24249        1.24474        3.17738
C          0.02093        0.01350        3.90820
C         -0.11126       -1.21504        3.18607
C         -0.05586       -1.22895        1.76225
N          0.40225        2.31134        3.95070
S          0.27803        1.77445        5.51671
N          0.01617        0.16087        5.22708
C          0.26556        2.24377        0.77770
C          0.05076        1.64923       -0.47206
N         -0.12016        0.28359       -0.31584
S          0.45194        3.97849        0.69818
C          0.22183        3.88964       -1.05971
C          0.01725        2.57790       -1.53024
C          0.21358        4.86500       -2.06153
C         -0.00761        4.29221       -3.34078
S         -0.19136        2.51684       -3.24910
C         -0.20208       -2.55775        3.59836
C         -0.16484       -3.35577        2.44802
N         -0.06604       -2.55108        1.32495
S         -0.28331       -3.47914        5.07986
C         -0.25390       -4.96946        4.11599
C         -0.18774       -4.73564        2.72861
C         -0.29240       -6.32229        4.46734
C         -0.25046       -7.15702        3.32061
S         -0.17345       -6.20467        1.81025
C         -0.06085        5.10434       -4.49491
C         -0.27142       -8.56306        3.45117
C         -0.25385        4.86569       -5.84259
C         -0.47463        3.54534       -6.46688
O         -0.52633        2.44979       -5.91727
C         -0.62676        3.78213       -7.91830
C         -0.50983        5.15695       -8.18586
C         -0.27504        5.87402       -6.90496
C         -0.85098        2.83339       -8.90668
C         -0.96089        3.29031      -10.21159
C         -0.84698        4.65880      -10.49873
C         -0.62253        5.60648       -9.50726
C         -0.11390        7.24501       -6.79446
C         -0.15545        8.13217       -7.91287
N         -0.18402        8.88144       -8.80438
C          0.11047        7.93015       -5.56175
N          0.29454        8.51542       -4.57051
C         -0.24338       -9.62162        2.56287
C         -0.17792       -9.51740        1.09090
O         -0.13747       -8.49948        0.40741
C         -0.16977      -10.90003        0.56738
C         -0.22613      -11.80914        1.63776
C         -0.27372      -11.04406        2.91152
C         -0.11608      -11.29601       -0.76213
C         -0.11939      -12.65899       -1.01889
C         -0.17511      -13.58207        0.03611
C         -0.22886      -13.18288        1.36623
C         -0.33463      -11.62155        4.16873
C         -0.35889      -13.03333        4.38288
N         -0.38004      -14.17941        4.59048
C         -0.38011      -10.88285        5.39004
N         -0.41819      -10.30565        6.40216
H          0.08652        6.14393       -4.23561
H         -0.32128       -8.84762        4.49339
H         -0.93691        1.77826       -8.67089
F         -1.17709        2.44016      -11.22201
F         -0.96066        5.04711      -11.77439
H         -0.54579        6.64340       -9.80347
H         -0.07339      -10.57172       -1.56826
F         -0.06973      -13.12267       -2.27307
F         -0.17574      -14.88580       -0.26603
H         -0.27012      -13.95091        2.12601
C         -0.76605       -0.53197       -1.34151
H         -1.40166        0.11309       -1.95308
H         -0.03883       -1.02500       -1.99313
H         -1.40148       -1.28059       -0.86679
C          0.40967       -3.07258        0.04586
H          1.04460       -2.32965       -0.43838
H          1.01382       -3.96355        0.23371
H         -0.41481       -3.34359       -0.61997
C          0.41194        6.33450       -1.80519
H          0.56462        6.52555       -0.73953
H          1.28121        6.72617       -2.34438
H         -0.45210        6.92348       -2.13131
C         -0.36528       -6.82041        5.88546
H         -1.25847       -7.43122        6.05525
H          0.49687       -7.44628        6.14014
H         -0.39210       -5.98449        6.58968
