102
zr1_opt_freq.log	Energy: -4916894.8258666
C         -0.26452        0.92927        3.30374
C         -0.37188        0.94277        1.91303
C         -0.74648       -0.21148        1.15826
C         -1.03359       -1.42738        1.81442
C         -0.92624       -1.44090        3.20511
C         -0.55165       -0.28663        3.95992
S         -0.01964        2.34706        0.88853
C         -0.37360        1.39432       -0.54557
C         -0.74043        0.08953       -0.24191
C         -0.33667        1.68306       -1.92925
C         -0.67988        0.58347       -2.69423
S         -1.07318       -0.82063       -1.68977
S         -1.27855       -2.84521        4.22950
C         -0.92473       -1.89251        5.66366
C         -0.55782       -0.58766        5.36006
C         -0.96149       -2.18145        7.04715
C         -0.61810       -1.08197        7.81248
S         -0.22529        0.32244        6.80796
C          0.13090        2.12568        4.07132
S         -1.00145        3.43093        4.38463
C          0.18051        4.31556        5.31868
C          1.36418        3.62761        5.37187
C          1.33799        2.38704        4.66759
C         -1.42900       -2.62375        1.04677
S         -0.29650       -3.92876        0.73300
C         -1.47851       -4.81341       -0.20099
C         -2.66230       -4.12564       -0.25381
C         -2.63617       -2.88521        0.45071
C         -0.75247        0.48570       -4.13136
S         -0.80120        1.91674       -5.13726
C         -0.85346        0.95464       -6.61398
C         -0.86393       -0.40540       -6.31311
C         -0.80382       -0.64796       -4.91760
C         -0.54549       -0.98471        9.24939
S         -0.51525       -2.41549       10.25586
C         -0.45001       -1.45358       11.73286
C         -0.42536       -0.09320       11.43023
C         -0.48229        0.14907       10.03516
C         -0.87436        1.64058       -7.88185
S         -1.26724        0.85184       -9.39685
C         -1.09168        2.34519      -10.30940
C         -0.74991        3.38462       -9.45121
C         -0.62880        2.99308       -8.10860
C         -0.43333       -2.13914       12.99975
S         -0.11015       -1.34170       14.52398
C         -0.25843       -2.84968       15.43335
C         -0.54147       -3.89760       14.56177
C         -0.63793       -3.50101       13.22095
C         -1.29730        2.31072      -11.72262
C         -1.24236        3.32615      -12.62619
S         -0.90176        5.03751      -12.37292
C         -1.08242        5.40222      -14.10744
S         -0.90033        6.91713      -14.73208
N         -1.38435        4.25793      -14.79654
C         -1.49312        3.05895      -14.05636
O         -1.75714        1.98123      -14.56133
C         -0.08115       -2.75981       16.84898
C         -0.11337       -3.69243       17.84972
S          0.16093       -3.21912       19.54300
C         -0.03302       -4.87660       20.12485
S          0.08563       -5.30889       21.71429
N         -0.28997       -5.70986       19.06486
C         -0.35273       -5.14046       17.77356
O         -0.57847       -5.81595       16.77863
H         -0.05131        2.63891       -2.35335
H         -1.24627       -3.13761        7.47094
H          2.23495        4.00223        5.90016
H          2.17855        1.70488        4.60250
H         -3.53311       -4.50028       -0.78201
H         -3.47684       -2.20321        0.51611
H         -0.77261       -1.64952       -4.50093
H         -0.50082        1.15073        9.61796
H         -0.57718        4.40143       -9.78166
H         -0.35238        3.67795       -7.31466
H         -0.67586       -4.90899       14.91619
H         -0.86556       -4.19343       12.41778
H         -1.53676        1.34643      -12.16899
H          0.12161       -1.74595       17.19550
C         -0.14977        5.64353        5.93290
H          0.71840        6.02319        6.48077
H         -0.42130        6.38709        5.17389
H         -0.98803        5.57066        6.63630
C         -1.14814       -6.14120       -0.81555
H         -0.30999       -6.06806       -1.51905
H         -0.87642       -6.88489       -0.05673
H         -2.01633       -6.52084       -1.36339
C         -0.90800       -1.52624       -7.31682
H         -0.76481       -2.48976       -6.81906
H         -1.87118       -1.56519       -7.84082
H         -0.12702       -1.42263       -8.07891
C         -0.36765        1.02809       12.43245
H         -0.46728        1.99450       11.92972
H         -1.16976        0.95230       13.17587
H          0.58338        1.03586       12.97938
C         -1.58988        4.25810      -16.24213
H         -0.68674        4.61509      -16.74319
H         -1.81407        3.23263      -16.53507
H         -2.41855        4.92334      -16.49695
C         -0.49553       -7.14367       19.25107
H         -0.67998       -7.57473       18.26766
H          0.39299       -7.58671       19.70750
H         -1.34882       -7.31035       19.91303
